Circuit: * J:\BrendonsBoard\LT Spice\Buzzer2.asc

Direct Newton iteration for .op point succeeded.

Date: Fri Jun 29 10:23:47 2018
Total elapsed time: 0.191 seconds.

tnom = 27
temp = 27
method = modified trap
totiter = 2104
traniter = 2090
tranpoints = 1046
accept = 1046
rejected = 0
matrix size = 9
fillins = 1
solver = Normal
Matrix Compiler1: 528 bytes object code size  0.2/0.1/[0.1]
Matrix Compiler2:      56 opcodes  0.1/[0.1]/0.1

