Circuit: * J:\BrendonsBoard\LT Spice\Buzzer.asc

Direct Newton iteration for .op point succeeded.

Date: Fri Jun 29 10:24:45 2018
Total elapsed time: 0.165 seconds.

tnom = 27
temp = 27
method = modified trap
totiter = 2098
traniter = 2090
tranpoints = 1046
accept = 1046
rejected = 0
matrix size = 10
fillins = 1
solver = Normal
Matrix Compiler1: 524 bytes object code size  0.2/0.1/[0.1]
Matrix Compiler2: off  [0.1]/0.1/0.1

